* SPICE3 file created from flash_adc.ext - technology: sky130A

.subckt flash_adc T_1 T_6 T_7 vin T_2 T_3 T_4 T_5 Y1 Y2 Y3 VDD VSS
X0 T_4 FLASH_ADC_SYM_4_0/a_200_531# VDD VDD sky130_fd_pr__pfet_01v8 ad=2.352e+11p pd=2.24e+06u as=4.41903e+13p ps=4.3592e+08u w=840000u l=150000u
X1 VDD vin FLASH_ADC_SYM_4_0/a_200_531# VDD sky130_fd_pr__pfet_01v8 ad=0p pd=0u as=2.352e+11p ps=2.24e+06u w=840000u l=150000u
X2 VDD FLASH_ADC_SYM_4_0/a_200_531# T_4 VDD sky130_fd_pr__pfet_01v8 ad=0p pd=0u as=0p ps=0u w=840000u l=150000u
X3 T_4 FLASH_ADC_SYM_4_0/a_200_531# VSS VSS sky130_fd_pr__nfet_01v8 ad=4.704e+11p pd=3.92e+06u as=3.09329e+13p ps=3.3716e+08u w=1.68e+06u l=150000u
X4 VSS FLASH_ADC_SYM_4_0/a_200_531# T_4 VSS sky130_fd_pr__nfet_01v8 ad=0p pd=0u as=0p ps=0u w=1.68e+06u l=150000u
X5 FLASH_ADC_SYM_4_0/a_200_531# vin VSS VSS sky130_fd_pr__nfet_01v8 ad=4.704e+11p pd=3.92e+06u as=0p ps=0u w=1.68e+06u l=150000u
X6 VSS vin FLASH_ADC_SYM_4_0/a_200_531# VSS sky130_fd_pr__nfet_01v8 ad=0p pd=0u as=0p ps=0u w=1.68e+06u l=150000u
X7 FLASH_ADC_SYM_4_0/a_200_531# vin VDD VDD sky130_fd_pr__pfet_01v8 ad=0p pd=0u as=0p ps=0u w=840000u l=150000u
X8 FLASH_ADC_SYM_2_0/a_200_531# vin VSS VSS sky130_fd_pr__nfet_01v8 ad=1.176e+11p pd=1.4e+06u as=0p ps=0u w=420000u l=150000u
X9 VSS vin FLASH_ADC_SYM_2_0/a_200_531# VSS sky130_fd_pr__nfet_01v8 ad=0p pd=0u as=0p ps=0u w=420000u l=150000u
X10 FLASH_ADC_SYM_2_0/a_200_531# vin VDD VDD sky130_fd_pr__pfet_01v8 ad=3.528e+11p pd=3.08e+06u as=0p ps=0u w=1.26e+06u l=150000u
X11 T_2 FLASH_ADC_SYM_2_0/a_200_531# VDD VDD sky130_fd_pr__pfet_01v8 ad=3.528e+11p pd=3.08e+06u as=0p ps=0u w=1.26e+06u l=150000u
X12 VDD vin FLASH_ADC_SYM_2_0/a_200_531# VDD sky130_fd_pr__pfet_01v8 ad=0p pd=0u as=0p ps=0u w=1.26e+06u l=150000u
X13 VDD FLASH_ADC_SYM_2_0/a_200_531# T_2 VDD sky130_fd_pr__pfet_01v8 ad=0p pd=0u as=0p ps=0u w=1.26e+06u l=150000u
X14 T_2 FLASH_ADC_SYM_2_0/a_200_531# VSS VSS sky130_fd_pr__nfet_01v8 ad=1.176e+11p pd=1.4e+06u as=0p ps=0u w=420000u l=150000u
X15 VSS FLASH_ADC_SYM_2_0/a_200_531# T_2 VSS sky130_fd_pr__nfet_01v8 ad=0p pd=0u as=0p ps=0u w=420000u l=150000u
X16 FLASH_ADC_SYM_7_0/a_200_531# vin VSS VSS sky130_fd_pr__nfet_01v8 ad=1.176e+11p pd=1.4e+06u as=0p ps=0u w=420000u l=150000u
X17 FLASH_ADC_SYM_7_0/a_200_531# vin VDD VDD sky130_fd_pr__pfet_01v8 ad=1.176e+11p pd=1.4e+06u as=0p ps=0u w=420000u l=150000u
X18 T_7 FLASH_ADC_SYM_7_0/a_200_531# VDD VDD sky130_fd_pr__pfet_01v8 ad=1.176e+11p pd=1.4e+06u as=0p ps=0u w=420000u l=150000u
X19 VSS vin FLASH_ADC_SYM_7_0/a_200_531# VSS sky130_fd_pr__nfet_01v8 ad=0p pd=0u as=0p ps=0u w=420000u l=150000u
X20 VDD vin FLASH_ADC_SYM_7_0/a_200_531# VDD sky130_fd_pr__pfet_01v8 ad=0p pd=0u as=0p ps=0u w=420000u l=150000u
X21 VDD FLASH_ADC_SYM_7_0/a_200_531# T_7 VDD sky130_fd_pr__pfet_01v8 ad=0p pd=0u as=0p ps=0u w=420000u l=150000u
X22 T_7 FLASH_ADC_SYM_7_0/a_200_531# VSS VSS sky130_fd_pr__nfet_01v8 ad=1.176e+11p pd=1.4e+06u as=0p ps=0u w=420000u l=150000u
X23 VSS FLASH_ADC_SYM_7_0/a_200_531# T_7 VSS sky130_fd_pr__nfet_01v8 ad=0p pd=0u as=0p ps=0u w=420000u l=150000u
X24 VSS vin FLASH_ADC_SYM_5_0/a_200_531# VSS sky130_fd_pr__nfet_01v8 ad=0p pd=0u as=7.056e+11p ps=5.6e+06u w=2.52e+06u l=150000u
X25 FLASH_ADC_SYM_5_0/a_200_531# vin VDD VDD sky130_fd_pr__pfet_01v8 ad=1.176e+11p pd=1.4e+06u as=0p ps=0u w=420000u l=150000u
X26 T_5 FLASH_ADC_SYM_5_0/a_200_531# VDD VDD sky130_fd_pr__pfet_01v8 ad=1.176e+11p pd=1.4e+06u as=0p ps=0u w=420000u l=150000u
X27 VDD vin FLASH_ADC_SYM_5_0/a_200_531# VDD sky130_fd_pr__pfet_01v8 ad=0p pd=0u as=0p ps=0u w=420000u l=150000u
X28 VDD FLASH_ADC_SYM_5_0/a_200_531# T_5 VDD sky130_fd_pr__pfet_01v8 ad=0p pd=0u as=0p ps=0u w=420000u l=150000u
X29 T_5 FLASH_ADC_SYM_5_0/a_200_531# VSS VSS sky130_fd_pr__nfet_01v8 ad=7.056e+11p pd=5.6e+06u as=0p ps=0u w=2.52e+06u l=150000u
X30 VSS FLASH_ADC_SYM_5_0/a_200_531# T_5 VSS sky130_fd_pr__nfet_01v8 ad=0p pd=0u as=0p ps=0u w=2.52e+06u l=150000u
X31 FLASH_ADC_SYM_5_0/a_200_531# vin VSS VSS sky130_fd_pr__nfet_01v8 ad=0p pd=0u as=0p ps=0u w=2.52e+06u l=150000u
X32 T_3 FLASH_ADC_SYM_3_0/a_200_531# VSS VSS sky130_fd_pr__nfet_01v8 ad=2.352e+11p pd=2.24e+06u as=0p ps=0u w=840000u l=150000u
X33 FLASH_ADC_SYM_3_0/a_200_531# vin VDD VDD sky130_fd_pr__pfet_01v8 ad=4.704e+11p pd=3.92e+06u as=0p ps=0u w=1.68e+06u l=150000u
X34 VSS FLASH_ADC_SYM_3_0/a_200_531# T_3 VSS sky130_fd_pr__nfet_01v8 ad=0p pd=0u as=0p ps=0u w=840000u l=150000u
X35 T_3 FLASH_ADC_SYM_3_0/a_200_531# VDD VDD sky130_fd_pr__pfet_01v8 ad=4.704e+11p pd=3.92e+06u as=0p ps=0u w=1.68e+06u l=150000u
X36 VDD vin FLASH_ADC_SYM_3_0/a_200_531# VDD sky130_fd_pr__pfet_01v8 ad=0p pd=0u as=0p ps=0u w=1.68e+06u l=150000u
X37 VDD FLASH_ADC_SYM_3_0/a_200_531# T_3 VDD sky130_fd_pr__pfet_01v8 ad=0p pd=0u as=0p ps=0u w=1.68e+06u l=150000u
X38 FLASH_ADC_SYM_3_0/a_200_531# vin VSS VSS sky130_fd_pr__nfet_01v8 ad=2.352e+11p pd=2.24e+06u as=0p ps=0u w=840000u l=150000u
X39 VSS vin FLASH_ADC_SYM_3_0/a_200_531# VSS sky130_fd_pr__nfet_01v8 ad=0p pd=0u as=0p ps=0u w=840000u l=150000u
X40 FLASH_ADC_SYM_1_0/a_200_531# vin VSS VSS sky130_fd_pr__nfet_01v8 ad=1.176e+11p pd=1.4e+06u as=0p ps=0u w=420000u l=150000u
X41 VSS vin FLASH_ADC_SYM_1_0/a_200_531# VSS sky130_fd_pr__nfet_01v8 ad=0p pd=0u as=0p ps=0u w=420000u l=150000u
X42 FLASH_ADC_SYM_1_0/a_200_531# vin VDD VDD sky130_fd_pr__pfet_01v8 ad=7.056e+11p pd=5.6e+06u as=0p ps=0u w=2.52e+06u l=150000u
X43 T_1 FLASH_ADC_SYM_1_0/a_200_531# VDD VDD sky130_fd_pr__pfet_01v8 ad=7.056e+11p pd=5.6e+06u as=0p ps=0u w=2.52e+06u l=150000u
X44 VDD vin FLASH_ADC_SYM_1_0/a_200_531# VDD sky130_fd_pr__pfet_01v8 ad=0p pd=0u as=0p ps=0u w=2.52e+06u l=150000u
X45 VDD FLASH_ADC_SYM_1_0/a_200_531# T_1 VDD sky130_fd_pr__pfet_01v8 ad=0p pd=0u as=0p ps=0u w=2.52e+06u l=150000u
X46 T_1 FLASH_ADC_SYM_1_0/a_200_531# VSS VSS sky130_fd_pr__nfet_01v8 ad=1.176e+11p pd=1.4e+06u as=0p ps=0u w=420000u l=150000u
X47 VSS FLASH_ADC_SYM_1_0/a_200_531# T_1 VSS sky130_fd_pr__nfet_01v8 ad=0p pd=0u as=0p ps=0u w=420000u l=150000u
X48 VSS FLASH_ADC_SYM_6_0/a_200_531# T_6 VSS sky130_fd_pr__nfet_01v8 ad=0p pd=0u as=1.764e+11p ps=1.82e+06u w=630000u l=150000u
X49 FLASH_ADC_SYM_6_0/a_200_531# vin VDD VDD sky130_fd_pr__pfet_01v8 ad=1.176e+11p pd=1.4e+06u as=0p ps=0u w=420000u l=150000u
X50 T_6 FLASH_ADC_SYM_6_0/a_200_531# VDD VDD sky130_fd_pr__pfet_01v8 ad=1.176e+11p pd=1.4e+06u as=0p ps=0u w=420000u l=150000u
X51 VDD vin FLASH_ADC_SYM_6_0/a_200_531# VDD sky130_fd_pr__pfet_01v8 ad=0p pd=0u as=0p ps=0u w=420000u l=150000u
X52 FLASH_ADC_SYM_6_0/a_200_531# vin VSS VSS sky130_fd_pr__nfet_01v8 ad=1.764e+11p pd=1.82e+06u as=0p ps=0u w=630000u l=150000u
X53 VDD FLASH_ADC_SYM_6_0/a_200_531# T_6 VDD sky130_fd_pr__pfet_01v8 ad=0p pd=0u as=0p ps=0u w=420000u l=150000u
X54 VSS vin FLASH_ADC_SYM_6_0/a_200_531# VSS sky130_fd_pr__nfet_01v8 ad=0p pd=0u as=0p ps=0u w=630000u l=150000u
X55 T_6 FLASH_ADC_SYM_6_0/a_200_531# VSS VSS sky130_fd_pr__nfet_01v8 ad=0p pd=0u as=0p ps=0u w=630000u l=150000u
C0 T_1 FLASH_ADC_SYM_7_0/a_200_531# 0.05fF
C1 FLASH_ADC_SYM_4_0/a_200_531# sky130_fd_sc_hd__fill_8_8/VPB 0.00fF
C2 VDD Y1 2.10fF
C3 sky130_fd_sc_hd__fill_2_7/VPB T_2 0.09fF
C4 T_6 T_2 0.33fF
C5 VDD sky130_fd_sc_hd__or4_1_0/a_277_297# 0.00fF
C6 Y2 sky130_fd_sc_hd__or4_1_1/a_27_297# 0.00fF
C7 T_3 T_5 0.21fF
C8 Y2 sky130_fd_sc_hd__or4_1_2/a_27_297# 0.02fF
C9 sky130_fd_sc_hd__fill_8_92/VPB VSS 1.18fF
C10 T_6 sky130_fd_sc_hd__or4_1_1/a_277_297# 0.00fF
C11 T_3 T_7 0.44fF
C12 VDD sky130_fd_sc_hd__fill_8_8/VPB 1.64fF
C13 T_5 T_2 0.15fF
C14 sky130_fd_sc_hd__fill_8_93/VPB VDD 1.39fF
C15 T_7 T_2 0.12fF
C16 FLASH_ADC_SYM_6_0/a_200_531# VDD 2.93fF
C17 T_5 sky130_fd_sc_hd__or4_1_1/a_277_297# 0.00fF
C18 VDD FLASH_ADC_SYM_5_0/a_200_531# 3.17fF
C19 T_3 sky130_fd_sc_hd__or4_1_0/a_205_297# 0.00fF
C20 T_7 sky130_fd_sc_hd__or4_1_1/a_277_297# 0.00fF
C21 vin T_3 0.51fF
C22 T_4 sky130_fd_sc_hd__or4_1_2/a_109_297# 0.00fF
C23 VSS Y3 0.50fF
C24 Y2 sky130_fd_sc_hd__or4_1_2/a_277_297# 0.00fF
C25 Y2 sky130_fd_sc_hd__or4_1_0/a_27_297# 0.09fF
C26 Y1 sky130_fd_sc_hd__fill_2_7/VPB 0.03fF
C27 Y1 T_6 0.01fF
C28 vin T_2 0.45fF
C29 T_4 T_1 0.08fF
C30 sky130_fd_sc_hd__or4_1_0/a_277_297# T_6 0.00fF
C31 Y1 T_5 0.12fF
C32 VDD Y2 3.12fF
C33 Y1 T_7 0.01fF
C34 sky130_fd_sc_hd__fill_8_93/VPB T_6 0.00fF
C35 sky130_fd_sc_hd__or4_1_0/a_277_297# T_7 0.00fF
C36 FLASH_ADC_SYM_6_0/a_200_531# T_6 0.39fF
C37 sky130_fd_sc_hd__fill_8_1/VPB T_3 0.00fF
C38 T_3 sky130_fd_sc_hd__fill_8_4/VPB 0.01fF
C39 T_6 FLASH_ADC_SYM_5_0/a_200_531# 0.30fF
C40 VSS T_3 4.20fF
C41 sky130_fd_sc_hd__fill_8_1/VPB T_2 0.08fF
C42 T_2 sky130_fd_sc_hd__fill_8_4/VPB 0.07fF
C43 VSS T_2 2.40fF
C44 FLASH_ADC_SYM_6_0/a_200_531# T_5 0.11fF
C45 T_5 FLASH_ADC_SYM_5_0/a_200_531# 0.47fF
C46 vin Y1 0.07fF
C47 FLASH_ADC_SYM_6_0/a_200_531# T_7 0.00fF
C48 T_4 sky130_fd_sc_hd__or4_1_2/a_205_297# 0.00fF
C49 VSS sky130_fd_sc_hd__or4_1_1/a_277_297# 0.00fF
C50 vin sky130_fd_sc_hd__fill_8_8/VPB 0.34fF
C51 VDD FLASH_ADC_SYM_7_0/a_200_531# 2.95fF
C52 sky130_fd_sc_hd__or4_1_2/a_109_297# sky130_fd_sc_hd__or4_1_2/a_27_297# 0.02fF
C53 T_6 Y2 0.26fF
C54 sky130_fd_sc_hd__fill_8_87/VPB FLASH_ADC_SYM_5_0/a_200_531# 0.01fF
C55 T_4 sky130_fd_sc_hd__or4_1_2/a_27_297# 0.32fF
C56 FLASH_ADC_SYM_6_0/a_200_531# vin 1.11fF
C57 T_1 sky130_fd_sc_hd__or4_1_1/a_27_297# 0.06fF
C58 vin FLASH_ADC_SYM_5_0/a_200_531# 0.57fF
C59 T_5 Y2 0.00fF
C60 sky130_fd_sc_hd__fill_8_1/VPB Y1 0.02fF
C61 Y1 sky130_fd_sc_hd__fill_8_4/VPB 0.01fF
C62 VSS Y1 2.13fF
C63 Y2 T_7 0.32fF
C64 VSS sky130_fd_sc_hd__or4_1_0/a_277_297# 0.00fF
C65 VSS sky130_fd_sc_hd__fill_8_8/VPB 1.40fF
C66 T_4 sky130_fd_sc_hd__or4_1_2/a_277_297# 0.00fF
C67 T_4 sky130_fd_sc_hd__or4_1_0/a_27_297# 0.00fF
C68 FLASH_ADC_SYM_4_0/a_200_531# T_4 0.26fF
C69 sky130_fd_sc_hd__fill_8_93/VPB VSS 1.18fF
C70 FLASH_ADC_SYM_6_0/a_200_531# VSS 0.06fF
C71 T_6 FLASH_ADC_SYM_7_0/a_200_531# 0.05fF
C72 sky130_fd_sc_hd__or4_1_2/a_205_297# sky130_fd_sc_hd__or4_1_2/a_27_297# 0.01fF
C73 VDD T_4 7.07fF
C74 T_5 FLASH_ADC_SYM_7_0/a_200_531# 0.11fF
C75 VDD T_1 5.19fF
C76 T_4 FLASH_ADC_SYM_3_0/a_200_531# 0.20fF
C77 T_3 T_2 3.00fF
C78 FLASH_ADC_SYM_7_0/a_200_531# T_7 0.37fF
C79 T_4 FLASH_ADC_SYM_2_0/a_200_531# 0.00fF
C80 sky130_fd_sc_hd__fill_8_92/VPB FLASH_ADC_SYM_5_0/a_200_531# 0.01fF
C81 T_3 sky130_fd_sc_hd__or4_1_1/a_277_297# 0.00fF
C82 VSS Y2 0.56fF
C83 T_2 sky130_fd_sc_hd__or4_1_1/a_277_297# 0.00fF
C84 vin FLASH_ADC_SYM_7_0/a_200_531# 0.96fF
C85 sky130_fd_sc_hd__or4_1_0/a_27_297# sky130_fd_sc_hd__or4_1_1/a_27_297# 0.01fF
C86 T_6 sky130_fd_sc_hd__or4_1_2/a_109_297# 0.00fF
C87 T_4 T_6 0.36fF
C88 sky130_fd_sc_hd__or4_1_2/a_277_297# sky130_fd_sc_hd__or4_1_2/a_27_297# 0.02fF
C89 FLASH_ADC_SYM_1_0/a_200_531# T_1 0.32fF
C90 sky130_fd_sc_hd__or4_1_0/a_27_297# sky130_fd_sc_hd__or4_1_2/a_27_297# 0.00fF
C91 T_3 Y1 1.41fF
C92 T_6 T_1 4.17fF
C93 T_5 sky130_fd_sc_hd__or4_1_2/a_109_297# 0.00fF
C94 T_4 T_5 0.47fF
C95 sky130_fd_sc_hd__or4_1_1/a_27_297# sky130_fd_sc_hd__or4_1_1/a_109_297# 0.02fF
C96 T_3 sky130_fd_sc_hd__or4_1_0/a_277_297# 0.00fF
C97 Y1 T_2 2.56fF
C98 T_7 sky130_fd_sc_hd__or4_1_2/a_109_297# 0.01fF
C99 VDD sky130_fd_sc_hd__or4_1_1/a_27_297# 0.27fF
C100 T_4 T_7 0.39fF
C101 sky130_fd_sc_hd__or4_1_0/a_277_297# T_2 0.00fF
C102 VDD sky130_fd_sc_hd__or4_1_2/a_27_297# 0.25fF
C103 T_5 T_1 1.30fF
C104 T_3 sky130_fd_sc_hd__fill_8_8/VPB 0.01fF
C105 Y1 sky130_fd_sc_hd__or4_1_1/a_277_297# 0.00fF
C106 VSS FLASH_ADC_SYM_7_0/a_200_531# 0.02fF
C107 T_1 T_7 0.30fF
C108 sky130_fd_sc_hd__fill_8_8/VPB T_2 0.07fF
C109 Y2 Y3 1.66fF
C110 vin T_4 1.00fF
C111 sky130_fd_sc_hd__fill_8_87/VPB T_1 0.11fF
C112 T_6 sky130_fd_sc_hd__or4_1_2/a_205_297# 0.00fF
C113 VDD sky130_fd_sc_hd__or4_1_2/a_277_297# 0.00fF
C114 vin T_1 0.38fF
C115 VDD sky130_fd_sc_hd__or4_1_0/a_27_297# 0.36fF
C116 VDD FLASH_ADC_SYM_4_0/a_200_531# 2.90fF
C117 T_5 sky130_fd_sc_hd__or4_1_2/a_205_297# 0.00fF
C118 sky130_fd_sc_hd__or4_1_1/a_27_297# sky130_fd_sc_hd__or4_1_1/a_205_297# 0.01fF
C119 T_6 sky130_fd_sc_hd__or4_1_1/a_27_297# 0.03fF
C120 FLASH_ADC_SYM_4_0/a_200_531# FLASH_ADC_SYM_3_0/a_200_531# 0.00fF
C121 T_7 sky130_fd_sc_hd__or4_1_2/a_205_297# 0.00fF
C122 VDD sky130_fd_sc_hd__or4_1_1/a_109_297# 0.00fF
C123 T_6 sky130_fd_sc_hd__or4_1_2/a_27_297# 0.26fF
C124 T_3 Y2 0.11fF
C125 Y1 sky130_fd_sc_hd__fill_8_8/VPB 0.01fF
C126 T_5 sky130_fd_sc_hd__or4_1_1/a_27_297# 0.32fF
C127 VSS sky130_fd_sc_hd__or4_1_2/a_109_297# 0.00fF
C128 Y2 T_2 0.01fF
C129 VSS T_4 1.26fF
C130 T_5 sky130_fd_sc_hd__or4_1_2/a_27_297# 0.08fF
C131 T_7 sky130_fd_sc_hd__or4_1_1/a_27_297# 0.21fF
C132 VDD FLASH_ADC_SYM_3_0/a_200_531# 2.72fF
C133 T_7 sky130_fd_sc_hd__or4_1_2/a_27_297# 0.47fF
C134 sky130_fd_sc_hd__or4_1_0/a_27_297# sky130_fd_sc_hd__or4_1_0/a_109_297# 0.02fF
C135 VSS T_1 2.99fF
C136 VDD FLASH_ADC_SYM_2_0/a_200_531# 2.87fF
C137 FLASH_ADC_SYM_3_0/a_200_531# FLASH_ADC_SYM_2_0/a_200_531# 0.00fF
C138 T_6 sky130_fd_sc_hd__or4_1_2/a_277_297# 0.00fF
C139 T_6 sky130_fd_sc_hd__or4_1_0/a_27_297# 0.22fF
C140 VDD sky130_fd_sc_hd__or4_1_0/a_109_297# 0.01fF
C141 sky130_fd_sc_hd__fill_8_93/VPB FLASH_ADC_SYM_5_0/a_200_531# 0.00fF
C142 T_5 sky130_fd_sc_hd__or4_1_2/a_277_297# 0.00fF
C143 VDD FLASH_ADC_SYM_1_0/a_200_531# 3.11fF
C144 FLASH_ADC_SYM_6_0/a_200_531# FLASH_ADC_SYM_5_0/a_200_531# 0.00fF
C145 T_5 sky130_fd_sc_hd__or4_1_0/a_27_297# 0.01fF
C146 T_6 sky130_fd_sc_hd__or4_1_1/a_109_297# 0.00fF
C147 FLASH_ADC_SYM_4_0/a_200_531# T_5 0.01fF
C148 sky130_fd_sc_hd__fill_8_92/VPB T_1 0.14fF
C149 T_7 sky130_fd_sc_hd__or4_1_2/a_277_297# 0.00fF
C150 VDD sky130_fd_sc_hd__or4_1_1/a_205_297# 0.00fF
C151 VDD sky130_fd_sc_hd__fill_2_7/VPB 1.31fF
C152 sky130_fd_sc_hd__or4_1_0/a_27_297# T_7 0.22fF
C153 VDD T_6 4.93fF
C154 T_5 sky130_fd_sc_hd__or4_1_1/a_109_297# 0.01fF
C155 sky130_fd_sc_hd__or4_1_0/a_277_297# Y2 0.00fF
C156 FLASH_ADC_SYM_1_0/a_200_531# FLASH_ADC_SYM_2_0/a_200_531# 0.00fF
C157 VSS sky130_fd_sc_hd__or4_1_2/a_205_297# 0.00fF
C158 VDD T_5 5.05fF
C159 T_7 sky130_fd_sc_hd__or4_1_1/a_109_297# 0.00fF
C160 sky130_fd_sc_hd__or4_1_0/a_27_297# sky130_fd_sc_hd__or4_1_0/a_205_297# 0.01fF
C161 T_4 Y3 0.15fF
C162 VDD T_7 7.85fF
C163 T_5 FLASH_ADC_SYM_3_0/a_200_531# 0.02fF
C164 VSS sky130_fd_sc_hd__or4_1_1/a_27_297# 0.36fF
C165 vin FLASH_ADC_SYM_4_0/a_200_531# 1.11fF
C166 VSS sky130_fd_sc_hd__or4_1_2/a_27_297# 0.36fF
C167 T_6 sky130_fd_sc_hd__or4_1_0/a_109_297# 0.00fF
C168 VDD sky130_fd_sc_hd__or4_1_0/a_205_297# 0.00fF
C169 VDD sky130_fd_sc_hd__fill_8_87/VPB 1.82fF
C170 VDD vin 19.19fF
C171 T_5 sky130_fd_sc_hd__or4_1_0/a_109_297# 0.00fF
C172 T_6 sky130_fd_sc_hd__or4_1_1/a_205_297# 0.00fF
C173 sky130_fd_sc_hd__or4_1_0/a_109_297# T_7 0.00fF
C174 T_3 T_4 0.11fF
C175 vin FLASH_ADC_SYM_3_0/a_200_531# 1.09fF
C176 T_2 sky130_fd_sc_hd__or4_1_2/a_109_297# 0.00fF
C177 T_5 sky130_fd_sc_hd__or4_1_1/a_205_297# 0.00fF
C178 T_4 T_2 0.08fF
C179 vin FLASH_ADC_SYM_2_0/a_200_531# 1.18fF
C180 VSS sky130_fd_sc_hd__or4_1_2/a_277_297# 0.00fF
C181 T_5 T_6 1.33fF
C182 T_3 T_1 0.00fF
C183 VSS sky130_fd_sc_hd__or4_1_0/a_27_297# 0.28fF
C184 VSS FLASH_ADC_SYM_4_0/a_200_531# 0.05fF
C185 T_7 sky130_fd_sc_hd__or4_1_1/a_205_297# 0.00fF
C186 T_6 T_7 0.87fF
C187 T_1 T_2 0.00fF
C188 FLASH_ADC_SYM_6_0/a_200_531# FLASH_ADC_SYM_7_0/a_200_531# 0.00fF
C189 VSS sky130_fd_sc_hd__or4_1_1/a_109_297# 0.00fF
C190 T_5 T_7 1.77fF
C191 sky130_fd_sc_hd__fill_8_1/VPB VDD 1.89fF
C192 VDD sky130_fd_sc_hd__fill_8_4/VPB 1.25fF
C193 VDD VSS 146.38fF
C194 T_6 sky130_fd_sc_hd__or4_1_0/a_205_297# 0.00fF
C195 FLASH_ADC_SYM_1_0/a_200_531# vin 0.56fF
C196 sky130_fd_sc_hd__fill_8_87/VPB T_6 0.20fF
C197 Y3 sky130_fd_sc_hd__or4_1_2/a_27_297# 0.09fF
C198 vin sky130_fd_sc_hd__fill_2_7/VPB 0.17fF
C199 VSS FLASH_ADC_SYM_3_0/a_200_531# 0.06fF
C200 vin T_6 0.42fF
C201 VSS FLASH_ADC_SYM_2_0/a_200_531# 0.04fF
C202 T_5 sky130_fd_sc_hd__or4_1_0/a_205_297# 0.00fF
C203 Y1 T_4 0.00fF
C204 sky130_fd_sc_hd__or4_1_0/a_205_297# T_7 0.00fF
C205 vin T_5 0.70fF
C206 sky130_fd_sc_hd__fill_8_92/VPB VDD 1.36fF
C207 vin T_7 0.10fF
C208 Y1 T_1 0.00fF
C209 VSS sky130_fd_sc_hd__or4_1_0/a_109_297# 0.00fF
C210 T_3 sky130_fd_sc_hd__or4_1_1/a_27_297# 0.23fF
C211 T_4 sky130_fd_sc_hd__fill_8_8/VPB 0.00fF
C212 Y3 sky130_fd_sc_hd__or4_1_2/a_277_297# 0.00fF
C213 FLASH_ADC_SYM_1_0/a_200_531# VSS 0.15fF
C214 T_3 sky130_fd_sc_hd__or4_1_2/a_27_297# 0.00fF
C215 T_2 sky130_fd_sc_hd__or4_1_1/a_27_297# 0.01fF
C216 VSS sky130_fd_sc_hd__or4_1_1/a_205_297# 0.00fF
C217 VSS sky130_fd_sc_hd__fill_2_7/VPB 1.39fF
C218 vin sky130_fd_sc_hd__fill_8_87/VPB 0.00fF
C219 T_2 sky130_fd_sc_hd__or4_1_2/a_27_297# 0.00fF
C220 VSS T_6 5.50fF
C221 sky130_fd_sc_hd__fill_8_93/VPB T_1 0.11fF
C222 sky130_fd_sc_hd__or4_1_1/a_27_297# sky130_fd_sc_hd__or4_1_1/a_277_297# 0.01fF
C223 FLASH_ADC_SYM_6_0/a_200_531# T_1 0.05fF
C224 VDD Y3 0.64fF
C225 VSS T_5 1.72fF
C226 T_1 FLASH_ADC_SYM_5_0/a_200_531# 0.10fF
C227 VSS T_7 5.04fF
C228 T_3 sky130_fd_sc_hd__or4_1_0/a_27_297# 0.28fF
C229 T_3 FLASH_ADC_SYM_4_0/a_200_531# 0.09fF
C230 sky130_fd_sc_hd__fill_8_92/VPB T_6 0.05fF
C231 sky130_fd_sc_hd__or4_1_0/a_27_297# T_2 0.23fF
C232 FLASH_ADC_SYM_4_0/a_200_531# T_2 0.10fF
C233 VSS sky130_fd_sc_hd__or4_1_0/a_205_297# 0.00fF
C234 VSS sky130_fd_sc_hd__fill_8_87/VPB 1.17fF
C235 Y2 sky130_fd_sc_hd__or4_1_2/a_109_297# 0.00fF
C236 T_4 Y2 0.89fF
C237 T_3 sky130_fd_sc_hd__or4_1_1/a_109_297# 0.00fF
C238 Y1 sky130_fd_sc_hd__or4_1_1/a_27_297# 0.09fF
C239 sky130_fd_sc_hd__fill_8_92/VPB T_5 0.02fF
C240 sky130_fd_sc_hd__fill_8_1/VPB vin 0.35fF
C241 vin sky130_fd_sc_hd__fill_8_4/VPB 0.04fF
C242 vin VSS 6.71fF
C243 VDD T_3 4.60fF
C244 Y2 T_1 0.64fF
C245 VDD T_2 3.57fF
C246 T_3 FLASH_ADC_SYM_3_0/a_200_531# 0.34fF
C247 T_6 Y3 0.01fF
C248 T_3 FLASH_ADC_SYM_2_0/a_200_531# 0.24fF
C249 T_2 FLASH_ADC_SYM_3_0/a_200_531# 0.10fF
C250 VDD sky130_fd_sc_hd__or4_1_1/a_277_297# 0.00fF
C251 T_2 FLASH_ADC_SYM_2_0/a_200_531# 0.39fF
C252 T_5 Y3 0.00fF
C253 sky130_fd_sc_hd__fill_8_92/VPB vin 0.00fF
C254 T_3 sky130_fd_sc_hd__or4_1_0/a_109_297# 0.00fF
C255 Y1 sky130_fd_sc_hd__or4_1_0/a_27_297# 0.00fF
C256 Y3 T_7 0.03fF
C257 sky130_fd_sc_hd__fill_8_1/VPB VSS 1.25fF
C258 VSS sky130_fd_sc_hd__fill_8_4/VPB 1.46fF
C259 Y1 FLASH_ADC_SYM_4_0/a_200_531# 0.00fF
C260 sky130_fd_sc_hd__or4_1_0/a_277_297# sky130_fd_sc_hd__or4_1_0/a_27_297# 0.01fF
C261 FLASH_ADC_SYM_1_0/a_200_531# T_3 0.00fF
C262 T_4 FLASH_ADC_SYM_7_0/a_200_531# 0.01fF
C263 Y2 sky130_fd_sc_hd__or4_1_2/a_205_297# 0.00fF
C264 T_3 sky130_fd_sc_hd__or4_1_1/a_205_297# 0.00fF
C265 T_3 sky130_fd_sc_hd__fill_2_7/VPB 0.00fF
C266 FLASH_ADC_SYM_1_0/a_200_531# T_2 0.00fF
C267 T_3 T_6 0.19fF
Xsky130_fd_sc_hd__fill_8_97 VSS VDD VSS VDD sky130_fd_sc_hd__fill_8
Xsky130_fd_sc_hd__fill_8_86 VSS VDD VSS VDD sky130_fd_sc_hd__fill_8
Xsky130_fd_sc_hd__fill_8_42 VSS VDD VSS VDD sky130_fd_sc_hd__fill_8
Xsky130_fd_sc_hd__fill_8_53 VSS VDD VSS VDD sky130_fd_sc_hd__fill_8
Xsky130_fd_sc_hd__fill_8_31 VSS VDD VSS VDD sky130_fd_sc_hd__fill_8
Xsky130_fd_sc_hd__fill_8_64 VSS VDD VSS VDD sky130_fd_sc_hd__fill_8
Xsky130_fd_sc_hd__fill_8_75 VSS VDD VSS VDD sky130_fd_sc_hd__fill_8
Xsky130_fd_sc_hd__fill_8_20 VSS VDD VSS VDD sky130_fd_sc_hd__fill_8
Xsky130_fd_sc_hd__fill_2_44 VSS VDD VSS VDD sky130_fd_sc_hd__fill_2
Xsky130_fd_sc_hd__fill_2_33 VSS sky130_fd_sc_hd__fill_8_93/VPB VSS VDD sky130_fd_sc_hd__fill_2
Xsky130_fd_sc_hd__fill_2_11 VSS VDD VSS VDD sky130_fd_sc_hd__fill_2
Xsky130_fd_sc_hd__fill_2_22 VSS VDD VSS VDD sky130_fd_sc_hd__fill_2
Xsky130_fd_sc_hd__fill_1_1 VSS sky130_fd_sc_hd__fill_2_7/VPB VDD VSS sky130_fd_sc_hd__fill_1
Xsky130_fd_sc_hd__fill_8_98 VSS VDD VSS VDD sky130_fd_sc_hd__fill_8
Xsky130_fd_sc_hd__fill_8_87 VSS sky130_fd_sc_hd__fill_8_87/VPB VSS VDD sky130_fd_sc_hd__fill_8
Xsky130_fd_sc_hd__fill_8_10 VSS sky130_fd_sc_hd__fill_8_4/VPB VSS VDD sky130_fd_sc_hd__fill_8
Xsky130_fd_sc_hd__fill_8_21 VSS sky130_fd_sc_hd__fill_8_4/VPB VSS VDD sky130_fd_sc_hd__fill_8
Xsky130_fd_sc_hd__fill_8_43 VSS VDD VSS VDD sky130_fd_sc_hd__fill_8
Xsky130_fd_sc_hd__fill_8_32 VSS VDD VSS VDD sky130_fd_sc_hd__fill_8
Xsky130_fd_sc_hd__fill_8_54 VSS VDD VSS VDD sky130_fd_sc_hd__fill_8
Xsky130_fd_sc_hd__fill_8_76 VSS VDD VSS VDD sky130_fd_sc_hd__fill_8
Xsky130_fd_sc_hd__fill_8_65 VSS VDD VSS VDD sky130_fd_sc_hd__fill_8
Xsky130_fd_sc_hd__fill_2_45 VSS VDD VSS VDD sky130_fd_sc_hd__fill_2
Xsky130_fd_sc_hd__fill_2_34 VSS VDD VSS VDD sky130_fd_sc_hd__fill_2
Xsky130_fd_sc_hd__fill_2_12 VSS VDD VSS VDD sky130_fd_sc_hd__fill_2
Xsky130_fd_sc_hd__fill_2_23 VSS VDD VSS VDD sky130_fd_sc_hd__fill_2
Xsky130_fd_sc_hd__fill_1_2 VSS sky130_fd_sc_hd__fill_8_4/VPB VDD VSS sky130_fd_sc_hd__fill_1
Xsky130_fd_sc_hd__fill_8_88 VSS sky130_fd_sc_hd__fill_8_92/VPB VSS VDD sky130_fd_sc_hd__fill_8
Xsky130_fd_sc_hd__fill_8_11 VSS VDD VSS VDD sky130_fd_sc_hd__fill_8
Xsky130_fd_sc_hd__fill_8_44 VSS VDD VSS VDD sky130_fd_sc_hd__fill_8
Xsky130_fd_sc_hd__fill_8_33 VSS VDD VSS VDD sky130_fd_sc_hd__fill_8
Xsky130_fd_sc_hd__fill_8_55 VSS VDD VSS VDD sky130_fd_sc_hd__fill_8
Xsky130_fd_sc_hd__fill_8_77 VSS VDD VSS VDD sky130_fd_sc_hd__fill_8
Xsky130_fd_sc_hd__fill_8_66 VSS VDD VSS VDD sky130_fd_sc_hd__fill_8
Xsky130_fd_sc_hd__fill_8_22 VSS sky130_fd_sc_hd__fill_2_7/VPB VSS VDD sky130_fd_sc_hd__fill_8
Xsky130_fd_sc_hd__fill_8_99 VSS VDD VSS VDD sky130_fd_sc_hd__fill_8
Xsky130_fd_sc_hd__decap_4_70 VSS VDD sky130_fd_sc_hd__decap_4
Xsky130_fd_sc_hd__fill_2_46 VSS VDD VSS VDD sky130_fd_sc_hd__fill_2
Xsky130_fd_sc_hd__fill_2_35 VSS sky130_fd_sc_hd__fill_8_87/VPB VSS VDD sky130_fd_sc_hd__fill_2
Xsky130_fd_sc_hd__fill_2_13 VSS VDD VSS VDD sky130_fd_sc_hd__fill_2
Xsky130_fd_sc_hd__fill_2_24 VSS VDD VSS VDD sky130_fd_sc_hd__fill_2
Xsky130_fd_sc_hd__fill_1_3 VSS sky130_fd_sc_hd__fill_8_8/VPB VDD VSS sky130_fd_sc_hd__fill_1
Xsky130_fd_sc_hd__fill_8_89 VSS VDD VSS VDD sky130_fd_sc_hd__fill_8
Xsky130_fd_sc_hd__fill_8_23 VSS VDD VSS VDD sky130_fd_sc_hd__fill_8
Xsky130_fd_sc_hd__fill_8_45 VSS VDD VSS VDD sky130_fd_sc_hd__fill_8
Xsky130_fd_sc_hd__fill_8_34 VSS VDD VSS VDD sky130_fd_sc_hd__fill_8
Xsky130_fd_sc_hd__fill_8_56 VSS VDD VSS VDD sky130_fd_sc_hd__fill_8
Xsky130_fd_sc_hd__fill_8_78 VSS VDD VSS VDD sky130_fd_sc_hd__fill_8
Xsky130_fd_sc_hd__fill_8_67 VSS VDD VSS VDD sky130_fd_sc_hd__fill_8
Xsky130_fd_sc_hd__fill_8_12 VSS sky130_fd_sc_hd__fill_8_8/VPB VSS VDD sky130_fd_sc_hd__fill_8
Xsky130_fd_sc_hd__decap_4_60 VSS VDD sky130_fd_sc_hd__decap_4
Xsky130_fd_sc_hd__decap_4_71 VSS VDD sky130_fd_sc_hd__decap_4
Xsky130_fd_sc_hd__fill_2_47 VSS VDD VSS VDD sky130_fd_sc_hd__fill_2
Xsky130_fd_sc_hd__fill_2_36 VSS sky130_fd_sc_hd__fill_8_92/VPB VSS VDD sky130_fd_sc_hd__fill_2
Xsky130_fd_sc_hd__fill_2_14 VSS VDD VSS VDD sky130_fd_sc_hd__fill_2
Xsky130_fd_sc_hd__fill_2_25 VSS VDD VSS VDD sky130_fd_sc_hd__fill_2
Xsky130_fd_sc_hd__fill_1_4 VSS VDD VDD VSS sky130_fd_sc_hd__fill_1
Xsky130_fd_sc_hd__fill_8_35 VSS VDD VSS VDD sky130_fd_sc_hd__fill_8
Xsky130_fd_sc_hd__fill_8_57 VSS VDD VSS VDD sky130_fd_sc_hd__fill_8
Xsky130_fd_sc_hd__fill_8_46 VSS VDD VSS VDD sky130_fd_sc_hd__fill_8
Xsky130_fd_sc_hd__fill_8_24 VSS sky130_fd_sc_hd__fill_2_7/VPB VSS VDD sky130_fd_sc_hd__fill_8
Xsky130_fd_sc_hd__fill_8_13 VSS sky130_fd_sc_hd__fill_8_8/VPB VSS VDD sky130_fd_sc_hd__fill_8
Xsky130_fd_sc_hd__fill_8_68 VSS VDD VSS VDD sky130_fd_sc_hd__fill_8
Xsky130_fd_sc_hd__fill_8_79 VSS VDD VSS VDD sky130_fd_sc_hd__fill_8
Xsky130_fd_sc_hd__decap_4_72 VSS VDD sky130_fd_sc_hd__decap_4
Xsky130_fd_sc_hd__decap_4_50 VSS VDD sky130_fd_sc_hd__decap_4
Xsky130_fd_sc_hd__decap_4_61 VSS VDD sky130_fd_sc_hd__decap_4
Xsky130_fd_sc_hd__fill_2_26 VSS sky130_fd_sc_hd__fill_8_92/VPB VSS VDD sky130_fd_sc_hd__fill_2
Xsky130_fd_sc_hd__fill_2_37 VSS VDD VSS VDD sky130_fd_sc_hd__fill_2
Xsky130_fd_sc_hd__fill_2_48 VSS VDD VSS VDD sky130_fd_sc_hd__fill_2
Xsky130_fd_sc_hd__fill_2_15 VSS VDD VSS VDD sky130_fd_sc_hd__fill_2
Xsky130_fd_sc_hd__fill_1_5 VSS VDD VDD VSS sky130_fd_sc_hd__fill_1
Xsky130_fd_sc_hd__fill_8_36 VSS VDD VSS VDD sky130_fd_sc_hd__fill_8
Xsky130_fd_sc_hd__fill_8_25 VSS sky130_fd_sc_hd__fill_2_7/VPB VSS VDD sky130_fd_sc_hd__fill_8
Xsky130_fd_sc_hd__fill_8_47 VSS VDD VSS VDD sky130_fd_sc_hd__fill_8
Xsky130_fd_sc_hd__fill_8_14 VSS sky130_fd_sc_hd__fill_2_7/VPB VSS VDD sky130_fd_sc_hd__fill_8
Xsky130_fd_sc_hd__fill_8_58 VSS VDD VSS VDD sky130_fd_sc_hd__fill_8
Xsky130_fd_sc_hd__fill_8_69 VSS VDD VSS VDD sky130_fd_sc_hd__fill_8
Xsky130_fd_sc_hd__decap_4_73 VSS VDD sky130_fd_sc_hd__decap_4
Xsky130_fd_sc_hd__decap_4_51 VSS VDD sky130_fd_sc_hd__decap_4
Xsky130_fd_sc_hd__decap_4_62 VSS VDD sky130_fd_sc_hd__decap_4
Xsky130_fd_sc_hd__decap_4_40 VSS VDD sky130_fd_sc_hd__decap_4
Xsky130_fd_sc_hd__fill_8_200 VSS VDD VSS VDD sky130_fd_sc_hd__fill_8
Xsky130_fd_sc_hd__fill_2_27 VSS sky130_fd_sc_hd__fill_8_93/VPB VSS VDD sky130_fd_sc_hd__fill_2
Xsky130_fd_sc_hd__fill_2_38 VSS VDD VSS VDD sky130_fd_sc_hd__fill_2
Xsky130_fd_sc_hd__fill_2_49 VSS VDD VSS VDD sky130_fd_sc_hd__fill_2
Xsky130_fd_sc_hd__fill_2_16 VSS VDD VSS VDD sky130_fd_sc_hd__fill_2
Xsky130_fd_sc_hd__fill_1_6 VSS VDD VDD VSS sky130_fd_sc_hd__fill_1
Xsky130_fd_sc_hd__fill_8_37 VSS VDD VSS VDD sky130_fd_sc_hd__fill_8
Xsky130_fd_sc_hd__fill_8_48 VSS VDD VSS VDD sky130_fd_sc_hd__fill_8
Xsky130_fd_sc_hd__fill_8_59 VSS VDD VSS VDD sky130_fd_sc_hd__fill_8
Xsky130_fd_sc_hd__fill_8_15 VSS sky130_fd_sc_hd__fill_8_1/VPB VSS VDD sky130_fd_sc_hd__fill_8
Xsky130_fd_sc_hd__fill_8_26 VSS sky130_fd_sc_hd__fill_8_8/VPB VSS VDD sky130_fd_sc_hd__fill_8
Xsky130_fd_sc_hd__decap_4_52 VSS VDD sky130_fd_sc_hd__decap_4
Xsky130_fd_sc_hd__decap_4_63 VSS VDD sky130_fd_sc_hd__decap_4
Xsky130_fd_sc_hd__decap_4_74 VSS VDD sky130_fd_sc_hd__decap_4
Xsky130_fd_sc_hd__decap_4_41 VSS VDD sky130_fd_sc_hd__decap_4
Xsky130_fd_sc_hd__decap_4_30 VSS VDD sky130_fd_sc_hd__decap_4
Xsky130_fd_sc_hd__fill_8_201 VSS VDD VSS VDD sky130_fd_sc_hd__fill_8
Xsky130_fd_sc_hd__fill_2_39 VSS VDD VSS VDD sky130_fd_sc_hd__fill_2
Xsky130_fd_sc_hd__fill_2_28 VSS sky130_fd_sc_hd__fill_8_87/VPB VSS VDD sky130_fd_sc_hd__fill_2
Xsky130_fd_sc_hd__fill_8_0 VSS VDD VSS VDD sky130_fd_sc_hd__fill_8
Xsky130_fd_sc_hd__fill_2_17 VSS VDD VSS VDD sky130_fd_sc_hd__fill_2
Xsky130_fd_sc_hd__fill_1_7 VSS sky130_fd_sc_hd__fill_8_1/VPB VDD VSS sky130_fd_sc_hd__fill_1
Xsky130_fd_sc_hd__fill_8_38 VSS VDD VSS VDD sky130_fd_sc_hd__fill_8
Xsky130_fd_sc_hd__fill_8_49 VSS VDD VSS VDD sky130_fd_sc_hd__fill_8
Xsky130_fd_sc_hd__fill_8_27 VSS sky130_fd_sc_hd__fill_8_1/VPB VSS VDD sky130_fd_sc_hd__fill_8
Xsky130_fd_sc_hd__fill_8_16 VSS sky130_fd_sc_hd__fill_8_1/VPB VSS VDD sky130_fd_sc_hd__fill_8
Xsky130_fd_sc_hd__decap_4_75 VSS VDD sky130_fd_sc_hd__decap_4
Xsky130_fd_sc_hd__decap_4_64 VSS VDD sky130_fd_sc_hd__decap_4
Xsky130_fd_sc_hd__decap_4_42 VSS VDD sky130_fd_sc_hd__decap_4
Xsky130_fd_sc_hd__decap_4_31 VSS VDD sky130_fd_sc_hd__decap_4
Xsky130_fd_sc_hd__decap_4_20 VSS VDD sky130_fd_sc_hd__decap_4
Xsky130_fd_sc_hd__decap_4_53 VSS VDD sky130_fd_sc_hd__decap_4
Xsky130_fd_sc_hd__fill_8_202 VSS VDD VSS VDD sky130_fd_sc_hd__fill_8
Xsky130_fd_sc_hd__fill_8_1 VSS sky130_fd_sc_hd__fill_8_1/VPB VSS VDD sky130_fd_sc_hd__fill_8
Xsky130_fd_sc_hd__fill_2_29 VSS VDD VSS VDD sky130_fd_sc_hd__fill_2
Xsky130_fd_sc_hd__fill_2_18 VSS VDD VSS VDD sky130_fd_sc_hd__fill_2
Xsky130_fd_sc_hd__fill_1_8 VSS VDD VDD VSS sky130_fd_sc_hd__fill_1
Xsky130_fd_sc_hd__fill_8_17 VSS sky130_fd_sc_hd__fill_8_4/VPB VSS VDD sky130_fd_sc_hd__fill_8
Xsky130_fd_sc_hd__fill_8_28 VSS VDD VSS VDD sky130_fd_sc_hd__fill_8
Xsky130_fd_sc_hd__fill_8_39 VSS VDD VSS VDD sky130_fd_sc_hd__fill_8
Xsky130_fd_sc_hd__decap_4_43 VSS VDD sky130_fd_sc_hd__decap_4
Xsky130_fd_sc_hd__decap_4_54 VSS VDD sky130_fd_sc_hd__decap_4
Xsky130_fd_sc_hd__decap_4_10 VSS VDD sky130_fd_sc_hd__decap_4
Xsky130_fd_sc_hd__decap_4_65 VSS VDD sky130_fd_sc_hd__decap_4
Xsky130_fd_sc_hd__decap_4_21 VSS VDD sky130_fd_sc_hd__decap_4
Xsky130_fd_sc_hd__decap_4_32 VSS VDD sky130_fd_sc_hd__decap_4
Xsky130_fd_sc_hd__decap_4_76 VSS VDD sky130_fd_sc_hd__decap_4
Xsky130_fd_sc_hd__tapvpwrvgnd_1_0 VDD VSS sky130_fd_sc_hd__tapvpwrvgnd_1
Xsky130_fd_sc_hd__fill_8_203 VSS VDD VSS VDD sky130_fd_sc_hd__fill_8
Xsky130_fd_sc_hd__fill_8_2 VSS VDD VSS VDD sky130_fd_sc_hd__fill_8
Xsky130_fd_sc_hd__fill_2_19 VSS VDD VSS VDD sky130_fd_sc_hd__fill_2
Xsky130_fd_sc_hd__fill_1_9 VSS sky130_fd_sc_hd__fill_2_7/VPB VDD VSS sky130_fd_sc_hd__fill_1
Xsky130_fd_sc_hd__fill_8_18 VSS VDD VSS VDD sky130_fd_sc_hd__fill_8
Xsky130_fd_sc_hd__fill_8_29 VSS VDD VSS VDD sky130_fd_sc_hd__fill_8
Xsky130_fd_sc_hd__tapvpwrvgnd_1_30 VDD VSS sky130_fd_sc_hd__tapvpwrvgnd_1
Xsky130_fd_sc_hd__decap_4_66 VSS VDD sky130_fd_sc_hd__decap_4
Xsky130_fd_sc_hd__decap_4_55 VSS VDD sky130_fd_sc_hd__decap_4
Xsky130_fd_sc_hd__decap_4_77 VSS VDD sky130_fd_sc_hd__decap_4
Xsky130_fd_sc_hd__decap_4_22 VSS VDD sky130_fd_sc_hd__decap_4
Xsky130_fd_sc_hd__decap_4_33 VSS VDD sky130_fd_sc_hd__decap_4
Xsky130_fd_sc_hd__decap_4_11 VSS VDD sky130_fd_sc_hd__decap_4
Xsky130_fd_sc_hd__decap_4_44 VSS VDD sky130_fd_sc_hd__decap_4
Xsky130_fd_sc_hd__tapvpwrvgnd_1_1 VDD VSS sky130_fd_sc_hd__tapvpwrvgnd_1
Xsky130_fd_sc_hd__fill_8_204 VSS VDD VSS VDD sky130_fd_sc_hd__fill_8
Xsky130_fd_sc_hd__fill_8_3 VSS VDD VSS VDD sky130_fd_sc_hd__fill_8
Xsky130_fd_sc_hd__fill_8_19 VSS VDD VSS VDD sky130_fd_sc_hd__fill_8
Xsky130_fd_sc_hd__tapvpwrvgnd_1_31 VDD VSS sky130_fd_sc_hd__tapvpwrvgnd_1
Xsky130_fd_sc_hd__tapvpwrvgnd_1_20 VDD VSS sky130_fd_sc_hd__tapvpwrvgnd_1
Xsky130_fd_sc_hd__decap_4_67 VSS VDD sky130_fd_sc_hd__decap_4
Xsky130_fd_sc_hd__decap_4_45 VSS VDD sky130_fd_sc_hd__decap_4
Xsky130_fd_sc_hd__decap_4_56 VSS VDD sky130_fd_sc_hd__decap_4
Xsky130_fd_sc_hd__decap_4_23 VSS VDD sky130_fd_sc_hd__decap_4
Xsky130_fd_sc_hd__decap_4_34 VSS VDD sky130_fd_sc_hd__decap_4
Xsky130_fd_sc_hd__decap_4_12 VSS VDD sky130_fd_sc_hd__decap_4
Xsky130_fd_sc_hd__tapvpwrvgnd_1_2 VDD VSS sky130_fd_sc_hd__tapvpwrvgnd_1
Xsky130_fd_sc_hd__fill_8_205 VSS VDD VSS VDD sky130_fd_sc_hd__fill_8
Xsky130_fd_sc_hd__fill_8_4 VSS sky130_fd_sc_hd__fill_8_4/VPB VSS VDD sky130_fd_sc_hd__fill_8
Xsky130_fd_sc_hd__tapvpwrvgnd_1_10 VDD VSS sky130_fd_sc_hd__tapvpwrvgnd_1
Xsky130_fd_sc_hd__tapvpwrvgnd_1_21 VDD VSS sky130_fd_sc_hd__tapvpwrvgnd_1
Xsky130_fd_sc_hd__tapvpwrvgnd_1_32 VDD VSS sky130_fd_sc_hd__tapvpwrvgnd_1
Xsky130_fd_sc_hd__decap_4_46 VSS VDD sky130_fd_sc_hd__decap_4