*SPEF "ieee 1481-1999"
*DESIGN "flash_adc"
*DATE "11:11:11 Fri 11 11, 1111"
*VENDOR "OpenRCX"
*PROGRAM "Parallel Extraction"
*VERSION "1.0"
*DESIGN_FLOW "NAME_SCOPE LOCAL" "PIN_CAP NONE"
*DIVIDER /
*DELIMITER :
*BUS_DELIMITER []
*T_UNIT 1 NS
*C_UNIT 1 PF
*R_UNIT 1 OHM
*L_UNIT 1 HENRY

*NAME_MAP
*1 T_1
*2 T_2
*3 T_3
*4 T_4
*5 T_5
*6 T_6
*7 T_7
*8 Y1
*9 Y2
*10 Y3
*11 vin
*14 r_VDD
*15 r_VSS
*16 FA_1
*17 FA_2
*18 FA_3
*19 FA_4
*20 FA_5
*21 FA_6
*22 FA_7
*23 _0_
*24 _1_
*25 _2_
*26 PHY_0
*27 PHY_1
*28 PHY_2
*29 PHY_3
*30 PHY_4
*31 PHY_5
*32 PHY_6
*33 PHY_7
*34 PHY_8
*35 PHY_9
*36 PHY_10
*37 PHY_11
*38 PHY_12
*39 PHY_13
*40 PHY_14
*41 PHY_15
*42 PHY_16
*43 PHY_17
*44 PHY_18
*45 PHY_19
*46 PHY_20
*47 PHY_21
*48 PHY_22
*49 PHY_23
*50 PHY_24
*51 PHY_25
*52 PHY_26
*53 PHY_27
*54 PHY_28
*55 PHY_29
*56 PHY_30
*57 PHY_31
*58 PHY_32
*59 PHY_33
*60 PHY_34
*61 PHY_35
*62 PHY_36
*63 PHY_37
*64 PHY_38
*65 PHY_39
*66 PHY_40
*67 PHY_41
*68 PHY_42
*69 PHY_43
*70 PHY_44
*71 PHY_45
*72 PHY_46
*73 PHY_47
*74 PHY_48
*75 PHY_49
*76 PHY_50
*77 PHY_51
*78 PHY_52
*79 PHY_53
*80 PHY_54
*81 PHY_55
*82 PHY_56
*83 PHY_57
*84 PHY_58
*85 PHY_59
*86 PHY_60
*87 PHY_61
*88 PHY_62
*89 PHY_63
*90 PHY_64
*91 PHY_65
*92 PHY_66
*93 PHY_67
*94 PHY_68
*95 PHY_69
*96 PHY_70
*97 PHY_71
*98 PHY_72
*99 PHY_73
*100 PHY_74
*101 PHY_75
*102 PHY_76
*103 PHY_77
*104 TAP_78
*105 TAP_79
*106 TAP_80
*107 TAP_81
*108 TAP_82
*109 TAP_83
*110 TAP_84
*111 TAP_85
*112 TAP_86
*113 TAP_87
*114 TAP_88
*115 TAP_89
*116 TAP_90
*117 TAP_91
*118 TAP_92
*119 TAP_93
*120 TAP_94
*121 TAP_95
*122 TAP_96
*123 TAP_97
*124 TAP_98
*125 TAP_99
*126 TAP_100
*127 TAP_101
*128 TAP_102
*129 TAP_103
*130 TAP_104
*131 TAP_105
*132 TAP_106
*133 TAP_107
*134 TAP_108
*135 TAP_109
*136 TAP_110
*137 TAP_111
*138 FILLER_0_4
*139 FILLER_0_12
*140 FILLER_0_20
*141 FILLER_0_28
*142 FILLER_0_31
*143 FILLER_0_39
*144 FILLER_0_47
*145 FILLER_0_55
*146 FILLER_0_59
*147 FILLER_0_61
*148 FILLER_0_69
*149 FILLER_0_77
*150 FILLER_0_85
*151 FILLER_0_89
*152 FILLER_0_91
*153 FILLER_0_99
*154 FILLER_0_107
*155 FILLER_0_115
*156 FILLER_0_119
*157 FILLER_0_121
*158 FILLER_0_129
*159 FILLER_0_137
*160 FILLER_0_145
*161 FILLER_1_4
*162 FILLER_1_12
*163 FILLER_1_20
*164 FILLER_1_28
*165 FILLER_1_31
*166 FILLER_1_39
*167 FILLER_1_47
*168 FILLER_1_55
*169 FILLER_1_59
*170 FILLER_1_61
*171 FILLER_1_69
*172 FILLER_1_77
*173 FILLER_1_85
*174 FILLER_1_89
*175 FILLER_1_91
*176 FILLER_1_99
*177 FILLER_1_107
*178 FILLER_1_115
*179 FILLER_1_119
*180 FILLER_1_121
*181 FILLER_1_129
*182 FILLER_1_137
*183 FILLER_1_145
*184 FILLER_2_4
*185 FILLER_2_12
*186 FILLER_2_20
*187 FILLER_2_28
*188 FILLER_2_31
*189 FILLER_2_33
*190 FILLER_2_128
*191 FILLER_2_136
*192 FILLER_2_144
*193 FILLER_2_146
*194 FILLER_3_4
*195 FILLER_3_12
*196 FILLER_3_20
*197 FILLER_3_28
*198 FILLER_3_32
*199 FILLER_3_128
*200 FILLER_3_136
*201 FILLER_3_144
*202 FILLER_3_146
*203 FILLER_4_4
*204 FILLER_4_12
*205 FILLER_4_20
*206 FILLER_4_28
*207 FILLER_4_31
*208 FILLER_4_33
*209 FILLER_4_128
*210 FILLER_4_136
*211 FILLER_4_144
*212 FILLER_4_146
*213 FILLER_5_4
*214 FILLER_5_12
*215 FILLER_5_20
*216 FILLER_5_28
*217 FILLER_5_32
*218 FILLER_5_128
*219 FILLER_5_136
*220 FILLER_5_144
*221 FILLER_5_146
*222 FILLER_6_4
*223 FILLER_6_12
*224 FILLER_6_20
*225 FILLER_6_28
*226 FILLER_6_31
*227 FILLER_6_33
*228 FILLER_6_128
*229 FILLER_6_136
*230 FILLER_6_144
*231 FILLER_6_146
*232 FILLER_7_4
*233 FILLER_7_12
*234 FILLER_7_20
*235 FILLER_7_28
*236 FILLER_7_32
*237 FILLER_7_128
*238 FILLER_7_136
*239 FILLER_7_144
*240 FILLER_7_146
*241 FILLER_8_4
*242 FILLER_8_12
*243 FILLER_8_20
*244 FILLER_8_28
*245 FILLER_8_31
*246 FILLER_8_33
*247 FILLER_8_128
*248 FILLER_8_136
*249 FILLER_8_144
*250 FILLER_8_146
*251 FILLER_9_4
*252 FILLER_9_12
*253 FILLER_9_20
*254 FILLER_9_28
*255 FILLER_9_32
*256 FILLER_9_128
*257 FILLER_9_136
*258 FILLER_9_144
*259 FILLER_9_146
*260 FILLER_10_4
*261 FILLER_10_12
*262 FILLER_10_20
*263 FILLER_10_28
*264 FILLER_10_31
*265 FILLER_10_39
*266 FILLER_10_47
*267 FILLER_10_55
*268 FILLER_10_59
*269 FILLER_10_61
*270 FILLER_10_69
*271 FILLER_10_77
*272 FILLER_10_85
*273 FILLER_10_89
*274 FILLER_10_91
*275 FILLER_10_99
*276 FILLER_10_107
*277 FILLER_10_115
*278 FILLER_10_119
*279 FILLER_10_121
*280 FILLER_10_129
*281 FILLER_10_137
*282 FILLER_10_145
*283 FILLER_11_4
*284 FILLER_11_12
*285 FILLER_11_20
*286 FILLER_11_28
*287 FILLER_11_36
*288 FILLER_11_44
*289 FILLER_11_52
*290 FILLER_11_61
*291 FILLER_11_69
*292 FILLER_11_77
*293 FILLER_11_85
*294 FILLER_11_93
*295 FILLER_11_101
*296 FILLER_11_109
*297 FILLER_11_117
*298 FILLER_11_119
*299 FILLER_11_121
*300 FILLER_11_129
*301 FILLER_11_137
*302 FILLER_11_145
*303 FILLER_12_4
*304 FILLER_12_12
*305 FILLER_12_20
*306 FILLER_12_28
*307 FILLER_12_31
*308 FILLER_12_39
*309 FILLER_12_47
*310 FILLER_12_55
*311 FILLER_12_59
*312 FILLER_12_61
*313 FILLER_12_69
*314 FILLER_12_77
*315 FILLER_12_85
*316 FILLER_12_89
*317 FILLER_12_91
*318 FILLER_12_99
*319 FILLER_12_107
*320 FILLER_12_115
*321 FILLER_12_119
*322 FILLER_12_121
*323 FILLER_12_129
*324 FILLER_12_137
*325 FILLER_12_145
*326 FILLER_13_4
*327 FILLER_13_12
*328 FILLER_13_20
*329 FILLER_13_22
*330 FILLER_13_96
*331 FILLER_13_104
*332 FILLER_13_112
*333 FILLER_13_120
*334 FILLER_13_128
*335 FILLER_13_136
*336 FILLER_13_144
*337 FILLER_13_146
*338 FILLER_14_4
*339 FILLER_14_12
*340 FILLER_14_20
*341 FILLER_14_22
*342 FILLER_14_96
*343 FILLER_14_104
*344 FILLER_14_112
*345 FILLER_14_120
*346 FILLER_14_123
*347 FILLER_14_131
*348 FILLER_14_139
*349 FILLER_15_4
*350 FILLER_15_12
*351 FILLER_15_20
*352 FILLER_15_22
*353 FILLER_15_96
*354 FILLER_15_104
*355 FILLER_15_112
*356 FILLER_15_126
*357 FILLER_15_134
*358 FILLER_15_142
*359 FILLER_15_146
*360 FILLER_16_4
*361 FILLER_16_12
*362 FILLER_16_20
*363 FILLER_16_22
*364 FILLER_16_96
*365 FILLER_16_104
*366 FILLER_16_112
*367 FILLER_16_120
*368 FILLER_16_123
*369 FILLER_16_130
*370 FILLER_16_138
*371 FILLER_16_146
*372 FILLER_17_4
*373 FILLER_17_12
*374 FILLER_17_20
*375 FILLER_17_22
*376 FILLER_17_96
*377 FILLER_17_104
*378 FILLER_17_112
*379 FILLER_17_120
*380 FILLER_17_128
*381 FILLER_17_136
*382 FILLER_17_144
*383 FILLER_17_146
*384 FILLER_18_4
*385 FILLER_18_12
*386 FILLER_18_20
*387 FILLER_18_22
*388 FILLER_18_96
*389 FILLER_18_104
*390 FILLER_18_112
*391 FILLER_18_120
*392 FILLER_18_123
*393 FILLER_18_131
*394 FILLER_18_139
*395 FILLER_19_4
*396 FILLER_19_12
*397 FILLER_19_20
*398 FILLER_19_22
*399 FILLER_19_96
*400 FILLER_19_104
*401 FILLER_19_112
*402 FILLER_19_120
*403 FILLER_19_128
*404 FILLER_19_136
*405 FILLER_19_144
*406 FILLER_19_146
*407 FILLER_20_4
*408 FILLER_20_12
*409 FILLER_20_20
*410 FILLER_20_22
*411 FILLER_20_96
*412 FILLER_20_104
*413 FILLER_20_112
*414 FILLER_20_120
*415 FILLER_20_123
*416 FILLER_20_131
*417 FILLER_20_139
*418 FILLER_21_4
*419 FILLER_21_12
*420 FILLER_21_20
*421 FILLER_21_28
*422 FILLER_21_31
*423 FILLER_21_39
*424 FILLER_21_47
*425 FILLER_21_55
*426 FILLER_21_59
*427 FILLER_21_61
*428 FILLER_21_69
*429 FILLER_21_77
*430 FILLER_21_85
*431 FILLER_21_89
*432 FILLER_21_91
*433 FILLER_21_99
*434 FILLER_21_107
*435 FILLER_21_115
*436 FILLER_21_119
*437 FILLER_21_121
*438 FILLER_21_129
*439 FILLER_21_137
*440 FILLER_21_145
*441 FILLER_22_4
*442 FILLER_22_12
*443 FILLER_22_20
*444 FILLER_22_28
*445 FILLER_22_31
*446 FILLER_22_39
*447 FILLER_22_47
*448 FILLER_22_55
*449 FILLER_22_59
*450 FILLER_22_61
*451 FILLER_22_69
*452 FILLER_22_77
*453 FILLER_22_85
*454 FILLER_22_89
*455 FILLER_22_91
*456 FILLER_22_99
*457 FILLER_22_107
*458 FILLER_22_115
*459 FILLER_22_119
*460 FILLER_22_121
*461 FILLER_22_129
*462 FILLER_22_137
*463 FILLER_22_145

*PORTS
T_1 O
T_2 O
T_3 O
T_4 O
T_5 O
T_6 O
T_7 O
Y1 O
Y2 O
Y3 O
vin I
r_VDD\(0\) I
r_VDD\(1\) I
r_VDD\(2\) I
r_VDD\(3\) I
r_VDD\(4\) I
r_VDD\(5\) I
r_VDD\(6\) I
r_VDD\(7\) I
r_VDD\(8\) I
r_VDD\(9\) I
r_VSS\(0\) I
r_VSS\(1\) I
r_VSS\(2\) I
r_VSS\(3\) I
r_VSS\(4\) I
r_VSS\(5\) I
r_VSS\(6\) I
r_VSS\(7\) I
r_VSS\(8\) I
r_VSS\(9\) I

*D_NET *1 0.018184
*CONN
*P T_1 O
*I *25:D I *D sky130_fd_sc_hd__or4_1
*I *16:TIQ_1 I *D FLASH_ADC_SYM_1
*CAP
1 T_1 0.0013164
2 *25:D 0.00177324
3 *16:TIQ_1 0.001017
4 *1:18 0.0019517
5 *1:14 0.00395627
6 *1:13 0.00256473
7 *25:D *20:TIQ_5 0.000439065
8 *25:D *22:TIQ_7 0.000213199
9 *25:D *4:19 9.97479e-06
10 *25:D *5:8 0.000166542
11 *25:D *5:26 0.000364659
12 *25:D *6:17 0.000166538
13 *25:D *6:26 0.00248805
14 *1:14 Y2 0.000560355
15 *1:18 *6:16 0.00119628
*RES
1 T_1 *1:13 33.3574 
2 *1:13 *1:14 35.2598 
3 *1:14 *1:18 34.7768 
4 *1:18 *16:TIQ_1 26.2007 
5 *1:14 *25:D 43.396 
*END

*D_NET *2 0.0144884
*CONN
*P T_2 O
*I *23:A I *D sky130_fd_sc_hd__or4_1
*I *17:TIQ_2 I *D FLASH_ADC_SYM_2
*CAP
1 T_2 0.000894703
2 *23:A 0
3 *17:TIQ_2 0.00121252
4 *2:25 0.000939007
5 *2:14 0.00224346
6 *2:11 0.00187334
7 *2:7 0.00267611
8 *17:TIQ_2 *17:VDD 0.000106418
9 *17:TIQ_2 *18:VDD 0.000133968
10 *17:TIQ_2 *3:27 0.00233204
11 *2:11 *19:VIN 0
12 *2:11 *8:6 0
13 *2:25 *19:VIN 0
14 *2:25 *23:B 4.60253e-05
15 *2:25 *24:D 1.23544e-05
16 *2:25 *3:27 1.9559e-05
17 *2:25 *6:26 0.000160088
18 *2:25 *8:6 0.00183879
*RES
1 T_2 *2:7 29.293 
2 *2:7 *2:11 48.5488 
3 *2:11 *2:14 3.64814 
4 *2:14 *17:TIQ_2 8.00808 
5 *2:14 *2:25 43.1286 
6 *2:25 *23:A 9.24915 
*END

*D_NET *3 0.0163383
*CONN
*P T_3 O
*I *18:TIQ_3 I *D FLASH_ADC_SYM_3
*I *23:B I *D sky130_fd_sc_hd__or4_1
*I *25:A I *D sky130_fd_sc_hd__or4_1
*CAP
1 T_3 0.000876837
2 *18:TIQ_3 4.26076e-05
3 *23:B 0.000221725
4 *25:A 0
5 *3:27 0.00169864
6 *3:18 0.00269883
7 *3:8 0.00332481
8 *3:7 0.00302234
9 *18:TIQ_3 *17:VDD 1.77566e-05
10 *23:B *23:D 3.86121e-05
11 *23:B *24:A 0
12 *23:B *25:B 5.76134e-05
13 *23:B *7:16 7.86825e-06
14 *23:B *7:18 2.86008e-05
15 *3:8 r_VDD\(0\) 0.000224815
16 *3:8 *8:9 0
17 *3:8 *14:88 0.000108477
18 *3:18 *16:VDD 0
19 *3:18 *17:VDD 8.99353e-05
20 *3:18 *14:38 0
21 *3:18 *14:83 0
22 *3:18 *15:70 0
23 *3:18 *15:74 0.000446491
24 *3:18 *15:116 0.000103312
25 *3:27 *25:B 3.55319e-05
26 *3:27 *8:6 0.000895849
27 *17:TIQ_2 *3:27 0.00233204
28 *2:25 *23:B 4.60253e-05
29 *2:25 *3:27 1.9559e-05
*RES
1 T_3 *3:7 29.293 
2 *3:7 *3:8 53.9653 
3 *3:8 *3:18 46.2369 
4 *3:18 *3:27 47.7562 
5 *3:27 *25:A 13.7491 
6 *3:27 *23:B 20.0687 
7 *3:18 *18:TIQ_3 1.1936 
*END

*D_NET *4 0.0117561
*CONN
*P T_4 O
*I *24:C I *D sky130_fd_sc_hd__or4_1
*I *19:TIQ_4 I *D FLASH_ADC_SYM_4
*CAP
1 T_4 0.00216689
2 *24:C 0
3 *19:TIQ_4 0.000357255
4 *4:19 0.00192673
5 *4:16 0.00237692
6 *4:13 0.00114249
7 *4:8 0.00250194
8 *19:TIQ_4 *17:VDD 0
9 *19:TIQ_4 *18:VDD 0
10 *19:TIQ_4 *11:17 0.000198377
11 *19:TIQ_4 *11:19 0.000113302
12 *4:13 *24:A 2.95757e-05
13 *4:13 *7:11 0
14 *4:13 *9:8 0.000742713
15 *4:16 *24:A 6.08467e-05
16 *4:16 *7:11 2.65831e-05
17 *4:16 *7:16 6.99486e-05
18 *4:16 *10:10 3.25584e-05
19 *4:19 *5:5 0
20 *25:D *4:19 9.97479e-06
*RES
1 T_4 *4:8 47.3912 
2 *4:8 *4:13 21.6286 
3 *4:13 *4:16 25.1891 
4 *4:16 *4:19 46.1962 
5 *4:19 *19:TIQ_4 21.8845 
6 *4:13 *24:C 9.24915 
*END

*D_NET *5 0.0140466
*CONN
*P T_5 O
*I *24:D I *D sky130_fd_sc_hd__or4_1
*I *25:C I *D sky130_fd_sc_hd__or4_1
*I *20:TIQ_5 I *D FLASH_ADC_SYM_5
*CAP
1 T_5 0.00292493
2 *24:D 0.000618372
3 *25:C 0
4 *20:TIQ_5 0.00131499
5 *5:26 0.000870409
6 *5:8 0.00168626
7 *5:5 0.00304417
8 *20:TIQ_5 *22:TIQ_7 0.00172559
9 *20:TIQ_5 *6:17 0
10 *24:D *24:A 0.000602741
11 *24:D *6:26 0.000160088
12 *24:D *7:11 1.03403e-05
13 *5:26 *6:26 0.000106104
14 *25:D *20:TIQ_5 0.000439065
15 *25:D *5:8 0.000166542
16 *25:D *5:26 0.000364659
17 *2:25 *24:D 1.23544e-05
18 *4:19 *5:5 0
*RES
1 T_5 *5:5 77.53 
2 *5:5 *5:8 8.55102 
3 *5:8 *20:TIQ_5 28.5401 
4 *5:8 *5:26 9.04245 
5 *5:26 *25:C 9.24915 
6 *5:26 *24:D 36.8979 
*END

*D_NET *6 0.01493
*CONN
*P T_6 O
*I *21:TIQ_6 I *D FLASH_ADC_SYM_6
*I *24:A I *D sky130_fd_sc_hd__or4_1
*I *23:C I *D sky130_fd_sc_hd__or4_1
*CAP
1 T_6 0.00223015
2 *21:TIQ_6 5.56077e-05
3 *24:A 0.000309171
4 *23:C 0
5 *6:26 0.00160565
6 *6:17 0.00218756
7 *6:16 0.00306562
8 *24:A *7:11 1.41291e-05
9 *24:A *7:16 0
10 *24:A *9:8 0.000155618
11 *6:26 *22:TIQ_7 0.000336219
12 *6:26 *14:55 0
13 *20:TIQ_5 *6:17 0
14 *23:B *24:A 0
15 *24:D *24:A 0.000602741
16 *24:D *6:26 0.000160088
17 *25:D *6:17 0.000166538
18 *25:D *6:26 0.00248805
19 *1:18 *6:16 0.00119628
20 *2:25 *6:26 0.000160088
21 *4:13 *24:A 2.95757e-05
22 *4:16 *24:A 6.08467e-05
23 *5:26 *6:26 0.000106104
*RES
1 T_6 *6:16 49.7452 
2 *6:16 *6:17 21.2437 
3 *6:17 *6:26 20.12 
4 *6:26 *23:C 13.7491 
5 *6:26 *24:A 26.4832 
6 *6:17 *21:TIQ_6 10.5995 
*END

*D_NET *7 0.0100721
*CONN
*P T_7 O
*I *24:B I *D sky130_fd_sc_hd__or4_1
*I *22:TIQ_7 I *D FLASH_ADC_SYM_7
*I *23:D I *D sky130_fd_sc_hd__or4_1
*I *25:B I *D sky130_fd_sc_hd__or4_1
*CAP
1 T_7 0.00238386
2 *24:B 0
3 *22:TIQ_7 0.00047872
4 *23:D 0.000231889
5 *25:B 0.000139494
6 *7:18 0.000414355
7 *7:16 0.000927527
8 *7:11 0.00278969
9 *7:16 *9:8 0.000142349
10 *20:TIQ_5 *22:TIQ_7 0.00172559
11 *23:B *23:D 3.86121e-05
12 *23:B *25:B 5.76134e-05
13 *23:B *7:16 7.86825e-06
14 *23:B *7:18 2.86008e-05
15 *24:A *7:11 1.41291e-05
16 *24:A *7:16 0
17 *24:D *7:11 1.03403e-05
18 *25:D *22:TIQ_7 0.000213199
19 *3:27 *25:B 3.55319e-05
20 *4:13 *7:11 0
21 *4:16 *7:11 2.65831e-05
22 *4:16 *7:16 6.99486e-05
23 *6:26 *22:TIQ_7 0.000336219
*RES
1 T_7 *7:11 26.9262 
2 *7:11 *7:16 15.0163 
3 *7:16 *7:18 1.20912 
4 *7:18 *25:B 17.6574 
5 *7:18 *23:D 18.3548 
6 *7:16 *22:TIQ_7 10.153 
7 *7:11 *24:B 9.24915 
*END

*D_NET *8 0.0112442
*CONN
*P Y1 O
*I *25:X O *D sky130_fd_sc_hd__or4_1
*CAP
1 Y1 0.000761316
2 *25:X 0
3 *8:9 0.00279227
4 *8:8 0.00203095
5 *8:6 0.00146253
6 *8:5 0.00146253
7 *8:6 *19:GND 0
8 *2:11 *8:6 0
9 *2:25 *8:6 0.00183879
10 *3:8 *8:9 0
11 *3:27 *8:6 0.000895849
*RES
1 *25:X *8:5 13.7491 
2 *8:5 *8:6 55.8148 
3 *8:6 *8:8 4.5 
4 *8:8 *8:9 53.9653 
5 *8:9 Y1 25.5557 
*END

*D_NET *9 0.00902058
*CONN
*P Y2 O
*I *23:X O *D sky130_fd_sc_hd__or4_1
*CAP
1 Y2 0.000693226
2 *23:X 0.000638646
3 *9:9 0.00267764
4 *9:8 0.00262306
5 *9:8 *10:10 0
6 *9:9 Y3 0.000786959
7 *24:A *9:8 0.000155618
8 *1:14 Y2 0.000560355
9 *4:13 *9:8 0.000742713
10 *7:16 *9:8 0.000142349
*RES
1 *23:X *9:8 41.259 
2 *9:8 *9:9 60.066 
3 *9:9 Y2 27.2595 
*END

*D_NET *10 0.00461588
*CONN
*P Y3 O
*I *24:X O *D sky130_fd_sc_hd__or4_1
*CAP
1 Y3 0.00126063
2 *24:X 0.000637546
3 *10:10 0.00189818
4 *4:16 *10:10 3.25584e-05
5 *9:8 *10:10 0
6 *9:9 Y3 0.000786959
*RES
1 *24:X *10:10 33.4015 
2 *10:10 Y3 45.4543 
*END

*D_NET *11 0.0134047
*CONN
*P vin I
*I *18:VIN I *D FLASH_ADC_SYM_3
*I *17:VIN I *D FLASH_ADC_SYM_2
*I *22:VIN I *D FLASH_ADC_SYM_7
*I *21:VIN I *D FLASH_ADC_SYM_6
*I *20:VIN I *D FLASH_ADC_SYM_5
*I *16:VIN I *D FLASH_ADC_SYM_1
*I *19:VIN I *D FLASH_ADC_SYM_4
*CAP
1 vin 0.00258722
2 *18:VIN 1.76235e-05
3 *17:VIN 1.76235e-05
4 *22:VIN 0.000344399
5 *21:VIN 1.76235e-05
6 *20:VIN 0.000273588
7 *16:VIN 0.000254476
8 *19:VIN 0.00298407
9 *11:35 0.000332533
10 *11:34 0.00177688
11 *11:23 0.0018477
12 *11:19 0.000647488
13 *11:17 0.000842276
14 *19:VIN *19:VDD 0
15 *20:VIN *20:VDD 0.000436811
16 *20:VIN *21:VDD 6.1189e-05
17 *20:VIN *22:VDD 7.27958e-05
18 *20:VIN *14:62 0.00033061
19 *22:VIN *22:VDD 0.000223923
20 *11:17 *18:VDD 0
21 *11:17 *19:VDD 0
22 *11:19 *17:VDD 0
23 *11:23 *17:VDD 0
24 *11:23 *14:38 0
25 *11:35 *22:VDD 2.42138e-05
26 *19:TIQ_4 *11:17 0.000198377
27 *19:TIQ_4 *11:19 0.000113302
28 *2:11 *19:VIN 0
29 *2:25 *19:VIN 0
*RES
1 vin *19:VIN 35.2153 
2 *19:VIN *11:17 12.8644 
3 *11:17 *11:19 12.9247 
4 *11:19 *11:23 5.73894 
5 *11:23 *16:VIN 6.73964 
6 *11:23 *11:34 45.2979 
7 *11:34 *11:35 1.278 
8 *11:35 *20:VIN 11.7552 
9 *11:35 *21:VIN 0.494321 
10 *11:34 *22:VIN 11.7552 
11 *11:19 *17:VIN 0.494321 
12 *11:17 *18:VIN 0.494321 
*END

*D_NET *14 0.0223453
*CONN
*P r_VDD\(4\) I
*P r_VDD\(7\) I
*P r_VDD\(6\) I
*P r_VDD\(5\) I
*P r_VDD\(3\) I
*P r_VDD\(2\) I
*P r_VDD\(1\) I
*P r_VDD\(0\) I
*P r_VDD\(8\) I
*P r_VDD\(9\) I
*I *21:VDD I *D FLASH_ADC_SYM_6
*I *22:VDD I *D FLASH_ADC_SYM_7
*I *20:VDD I *D FLASH_ADC_SYM_5
*I *16:VDD I *D FLASH_ADC_SYM_1
*I *17:VDD I *D FLASH_ADC_SYM_2
*I *18:VDD I *D FLASH_ADC_SYM_3
*I *19:VDD I *D FLASH_ADC_SYM_4
*CAP
1 r_VDD\(4\) 1.77411e-05
2 r_VDD\(7\) 0
3 r_VDD\(6\) 0.000175775
4 r_VDD\(5\) 2.86839e-05
5 r_VDD\(3\) 1.77411e-05
6 r_VDD\(2\) 1.91226e-05
7 r_VDD\(1\) 2.86839e-05
8 r_VDD\(0\) 0.000509935
9 r_VDD\(8\) 0.000167112
10 r_VDD\(9\) 0.00226414
11 *21:VDD 1.75501e-06
12 *22:VDD 0.000439918
13 *20:VDD 0.000122253
14 *16:VDD 0.000562751
15 *17:VDD 0.000525695
16 *18:VDD 0.00098621
17 *19:VDD 0.0026819
18 *14:132 0.00108741
19 *14:120 0.00146095
20 *14:88 0.00107151
21 *14:86 0.0010952
22 *14:84 0.000711007
23 *14:83 0.00158391
24 *14:62 0.000517014
25 *14:55 0.0012734
26 *14:46 0.00141642
27 *14:38 0.00124197
28 r_VDD\(0\) r_VSS\(0\) 0
29 r_VDD\(0\) *15:78 0
30 *16:VDD *16:GND 2.73229e-06
31 *16:VDD *15:127 2.41518e-05
32 *14:55 *15:127 0.000383067
33 *14:83 *15:74 0
34 *14:83 *15:116 0
35 *14:83 *15:127 0
36 *14:86 *15:76 0
37 *14:88 *15:76 0
38 *14:88 *15:78 0
39 *14:132 r_VSS\(5\) 6.16246e-05
40 *14:132 *15:17 3.46093e-05
41 *17:TIQ_2 *17:VDD 0.000106418
42 *17:TIQ_2 *18:VDD 0.000133968
43 *18:TIQ_3 *17:VDD 1.77566e-05
44 *19:VIN *19:VDD 0
45 *19:TIQ_4 *17:VDD 0
46 *19:TIQ_4 *18:VDD 0
47 *20:VIN *20:VDD 0.000436811
48 *20:VIN *21:VDD 6.1189e-05
49 *20:VIN *22:VDD 7.27958e-05
50 *20:VIN *14:62 0.00033061
51 *22:VIN *22:VDD 0.000223923
52 *3:8 r_VDD\(0\) 0.000224815
53 *3:8 *14:88 0.000108477
54 *3:18 *16:VDD 0
55 *3:18 *17:VDD 8.99353e-05
56 *3:18 *14:38 0
57 *3:18 *14:83 0
58 *6:26 *14:55 0
59 *11:17 *18:VDD 0
60 *11:17 *19:VDD 0
61 *11:19 *17:VDD 0
62 *11:23 *17:VDD 0
63 *11:23 *14:38 0
64 *11:35 *22:VDD 2.42138e-05
*RES
1 r_VDD\(9\) r_VDD\(8\) 0.0293701 
2 r_VDD\(9\) *19:VDD 28.715 
3 *19:VDD *18:VDD 16.0835 
4 *18:VDD *17:VDD 12.2013 
5 *17:VDD *14:38 3.41202 
6 *14:38 *16:VDD 5.63043 
7 *16:VDD *14:46 12.373 
8 *14:46 *16:VDD 1.12362 
9 *14:46 *14:55 37.0607 
10 *14:55 *20:VDD 14.4455 
11 *14:55 *14:62 3.49641 
12 *14:62 *22:VDD 15.3722 
13 *14:62 *21:VDD 0.639 
14 *14:38 *14:83 31.0863 
15 *14:83 *14:84 0.317601 
16 *14:84 *14:86 1.27373 
17 *14:86 *14:88 1.42671 
18 *14:88 r_VDD\(0\) 1.87974 
19 *14:88 r_VDD\(1\) 0.453034 
20 *14:86 r_VDD\(2\) 0.453034 
21 *14:84 r_VDD\(3\) 0.453034 
22 *14:83 *14:120 1.31197 
23 *14:120 r_VDD\(5\) 0.453034 
24 *14:120 *14:132 3.09779 
25 *14:132 r_VDD\(6\) 0.365521 
26 *14:132 r_VDD\(7\) 0.0058 
27 *14:83 r_VDD\(4\) 0.453034 
*END

*D_NET *15 0.0180662
*CONN
*P r_VSS\(4\) I
*P r_VSS\(3\) I
*P r_VSS\(2\) I
*P r_VSS\(1\) I
*P r_VSS\(0\) I
*P r_VSS\(7\) I
*P r_VSS\(6\) I
*P r_VSS\(5\) I
*P r_VSS\(8\) I
*P r_VSS\(9\) I
*I *22:GND I *D FLASH_ADC_SYM_7
*I *21:GND I *D FLASH_ADC_SYM_6
*I *20:GND I *D FLASH_ADC_SYM_5
*I *16:GND I *D FLASH_ADC_SYM_1
*I *17:GND I *D FLASH_ADC_SYM_2
*I *18:GND I *D FLASH_ADC_SYM_3
*I *19:GND I *D FLASH_ADC_SYM_4
*CAP
1 r_VSS\(4\) 0.000136612
2 r_VSS\(3\) 0
3 r_VSS\(2\) 4.34364e-05
4 r_VSS\(1\) 2.77039e-05
5 r_VSS\(0\) 0.000480467
6 r_VSS\(7\) 0.00010667
7 r_VSS\(6\) 7.11133e-05
8 r_VSS\(5\) 0.000475245
9 r_VSS\(8\) 0.000989554
10 r_VSS\(9\) 6.78096e-05
11 *22:GND 0.000308051
12 *21:GND 0.000491723
13 *20:GND 0.000259232
14 *16:GND 2.66176e-05
15 *17:GND 0.00078238
16 *18:GND 0.000885774
17 *19:GND 0.00119952
18 *15:127 0.00147798
19 *15:116 0.00117409
20 *15:104 0.00019202
21 *15:78 0.000876543
22 *15:76 0.000951751
23 *15:74 0.00139532
24 *15:70 0.00123997
25 *15:17 0.00094165
26 *15:15 0.00127217
27 *15:13 0.00113678
28 r_VDD\(0\) r_VSS\(0\) 0
29 r_VDD\(0\) *15:78 0
30 *16:VDD *16:GND 2.73229e-06
31 *16:VDD *15:127 2.41518e-05
32 *3:18 *15:70 0
33 *3:18 *15:74 0.000446491
34 *3:18 *15:116 0.000103312
35 *8:6 *19:GND 0
36 *14:55 *15:127 0.000383067
37 *14:83 *15:74 0
38 *14:83 *15:116 0
39 *14:83 *15:127 0
40 *14:86 *15:76 0
41 *14:88 *15:76 0
42 *14:88 *15:78 0
43 *14:132 r_VSS\(5\) 6.16246e-05
44 *14:132 *15:17 3.46093e-05
*RES
1 r_VSS\(9\) r_VSS\(8\) 0.0293701 
2 r_VSS\(8\) *15:13 3.06658 
3 *15:13 *15:15 0.24111 
4 *15:15 *15:17 1.0825 
5 *15:17 r_VSS\(5\) 1.68975 
6 *15:17 r_VSS\(6\) 0.721985 
7 *15:15 *19:GND 23.5818 
8 *19:GND *18:GND 16.155 
9 *18:GND *17:GND 12.7559 
10 *15:13 r_VSS\(7\) 0.721985 
11 *17:GND *15:70 12.9035 
12 *15:70 *15:74 26.6744 
13 *15:74 *15:76 1.73267 
14 *15:76 *15:78 1.12075 
15 *15:78 r_VSS\(0\) 1.92009 
16 *15:78 r_VSS\(1\) 0.493377 
17 *15:76 r_VSS\(2\) 0.493377 
18 *15:74 *15:104 0.487577 
19 *15:104 r_VSS\(3\) 0.0058 
20 *15:104 r_VSS\(4\) 0.365521 
21 *15:70 *15:116 3.90826 
22 *15:116 *16:GND 5.139 
23 *15:116 *15:127 34.1539 
24 *15:127 *20:GND 6.73964 
25 *15:127 *21:GND 5.07583 
26 *21:GND *22:GND 8.31905 
*END
